TUR111_glm/OH_Line_Configuration_TUR111.glm
//**Overhead  Line configuration forTUR111:


object line_configuration {
	 name overhead_line_config_ABCN_105_105;
	 z11 0.345333+0.341000j;
	 z12 0.139333-0.004000j;
	 z13 0.139333-0.004000j;
	 z21 0.139333-0.004000j;
	 z22 0.345333+0.341000j;
	 z23 0.139333-0.004000j;
	 z31 0.139333-0.004000j;
	 z32 0.139333-0.004000j;
	 z33 0.345333+0.341000j;
	 }

object line_configuration {
	 name overhead_line_config_ABCN_108_108;
	 z11 0.345333+0.341000j;
	 z12 0.139333-0.004000j;
	 z13 0.139333-0.004000j;
	 z21 0.139333-0.004000j;
	 z22 0.345333+0.341000j;
	 z23 0.139333-0.004000j;
	 z31 0.139333-0.004000j;
	 z32 0.139333-0.004000j;
	 z33 0.345333+0.341000j;
	 }

object line_configuration {
	 name overhead_line_config_ABCN_114_90;
	 z11 0.345667+1.151733j;
	 z12 0.159667+0.506133j;
	 z13 0.159667+0.506133j;
	 z21 0.159667+0.506133j;
	 z22 0.345667+1.151733j;
	 z23 0.159667+0.506133j;
	 z31 0.159667+0.506133j;
	 z32 0.159667+0.506133j;
	 z33 0.345667+1.151733j;
	 }

object line_configuration {
	 name overhead_line_config_ABCN_39_90;
	 z11 0.345667+1.151733j;
	 z12 0.159667+0.506133j;
	 z13 0.159667+0.506133j;
	 z21 0.159667+0.506133j;
	 z22 0.345667+1.151733j;
	 z23 0.159667+0.506133j;
	 z31 0.159667+0.506133j;
	 z32 0.159667+0.506133j;
	 z33 0.345667+1.151733j;
	 }

object line_configuration {
	 name overhead_line_config_ABCN_4_4;
	 z11 1.517000+0.773000j;
	 z12 0.492000+0.257000j;
	 z13 0.492000+0.257000j;
	 z21 0.492000+0.257000j;
	 z22 1.517000+0.773000j;
	 z23 0.492000+0.257000j;
	 z31 0.492000+0.257000j;
	 z32 0.492000+0.257000j;
	 z33 1.517000+0.773000j;
	 }

object line_configuration {
	 name overhead_line_config_ABCN_54_90;
	 z11 0.345667+1.151733j;
	 z12 0.159667+0.506133j;
	 z13 0.159667+0.506133j;
	 z21 0.159667+0.506133j;
	 z22 0.345667+1.151733j;
	 z23 0.159667+0.506133j;
	 z31 0.159667+0.506133j;
	 z32 0.159667+0.506133j;
	 z33 0.345667+1.151733j;
	 }

object line_configuration {
	 name overhead_line_config_ABCN_90_90;
	 z11 0.345667+1.151733j;
	 z12 0.159667+0.506133j;
	 z13 0.159667+0.506133j;
	 z21 0.159667+0.506133j;
	 z22 0.345667+1.151733j;
	 z23 0.159667+0.506133j;
	 z31 0.159667+0.506133j;
	 z32 0.159667+0.506133j;
	 z33 0.345667+1.151733j;
	 }

object line_configuration {
	 name overhead_line_config_AN_79_79;
	 z11 2.660000+1.500000j;
	 z12 0.201000+0.637500j;
	 z13 0.201000+0.637500j;
	 z21 0.201000+0.637500j;
	 z22 2.660000+1.500000j;
	 z23 0.201000+0.637500j;
	 z31 0.201000+0.637500j;
	 z32 0.201000+0.637500j;
	 z33 2.660000+1.500000j;
	 }

object line_configuration {
	 name overhead_line_config_CN_82_82;
	 z11 1.720667+1.453667j;
	 z12 0.200667+0.637667j;
	 z13 0.200667+0.637667j;
	 z21 0.200667+0.637667j;
	 z22 1.720667+1.453667j;
	 z23 0.200667+0.637667j;
	 z31 0.200667+0.637667j;
	 z32 0.200667+0.637667j;
	 z33 1.720667+1.453667j;
	 }

